Circuit: * Z:\home\miguel\fiuba\microelectronica\tps\tfinal\inversor\inversor_tb.asc

Ignoring BSIM parameter XL
Ignoring BSIM parameter XW
Ignoring BSIM parameter XL
Ignoring BSIM parameter XW
Ignoring BSIM parameter XL
Ignoring BSIM parameter XW
Ignoring BSIM parameter XL
Ignoring BSIM parameter XW
Direct Newton iteration for .op point succeeded.
Changing Tseed to 1e-017

Date: Sun Dec 15 20:02:34 2019
Total elapsed time: 0.105 seconds.

tnom = 27
temp = 27
method = modified trap
totiter = 5142
traniter = 5136
tranpoints = 2539
accept = 2531
rejected = 7
matrix size = 8
fillins = 0
solver = Normal
Matrix Compiler1: 372 bytes object code size  0.1/0.1/[0.1]
Matrix Compiler2: 526 bytes object code size  0.1/0.1/[0.1]

