Circuit: * Z:\home\miguel\fiuba\microelectronica\tps\tfinal\inversor\inversor.asc

Ignoring BSIM parameter XL
Ignoring BSIM parameter XW
Ignoring BSIM parameter XL
Ignoring BSIM parameter XW
Direct Newton iteration for .op point succeeded.

Date: Sun Dec 15 19:26:32 2019
Total elapsed time: 0.096 seconds.

tnom = 27
temp = 27
method = modified trap
totiter = 5105
traniter = 5099
tranpoints = 2535
accept = 2530
rejected = 5
matrix size = 5
fillins = 0
solver = Normal
Matrix Compiler1:      12 opcodes  0.1/[0.1]/0.1
Matrix Compiler2: 311 bytes object code size  0.2/0.2/[0.1]

